This is some text.

More good text.

New line.

New line good.

Mistake. Oh no!